variable        infile index box.lmp
variable        mytemp index 120.0
variable        pressure index 1.0
variable        seed index 242321
variable	dt index 1.0

units           real
special_bonds   lj 0.0 0.0 0.5 coul 0.0 0.0 0.8333
#neighbor        2.0 bin
#neigh_modify    delay 0 every 1 check yes page 1000000 one 20000
atom_style      full
pair_style	 lj/cut/coul/long 12.0

bond_style	 harmonic
dihedral_style	 charmm
angle_style	 harmonic
improper_style	 cvff

read_data       box.lmp
Reading data file ...
  orthogonal box = (-15.000000 -19.000000 -22.000000) to (15.000000 19.000000 22.000000)
  reading atoms ...
  4096 atoms
  scanning bonds ...
  scanning angles ...
  scanning dihedrals ...
  scanning impropers ...
  reading bonds ...
  3584 bonds
  reading angles ...
  4608 angles
  reading dihedrals ...
  4096 dihedrals
  reading impropers ...
  1536 impropers
Finding 1-2 1-3 1-4 neighbors ...
     3 = max # of 1-2 neighbors
     4 = max # of 1-3 neighbors
     6 = max # of 1-4 neighbors
     7 = max # of special neighbors

kspace_style    pppm 1E-4
kspace_modify   mesh 32 32 32
pair_modify     mix arithmetic tail yes

timestep        1.0

minimize       1.0e-4 1.0e-6 100 1000
PPPM initialization ...
  G vector (1/distance) = 0.26105858
  grid = 32 32 32
  stencil order = 5
  estimated absolute RMS force accuracy = 0.00040651563
  estimated relative force accuracy = 1.2242097e-06
  3d grid and FFT values/proc = 6210 2048
  update every 1 steps, delay 0 steps, check yes
Step Temp E_pair E_mol TotEng Press
0            0    5737.4839    13044.405    18781.889    121888.59
Loop time of 0.867625 on 24 procs for 100 steps with 4096 atoms

Minimization stats:
  Stopping criterion = max iterations
  Energy initial, next-to-last, final =
  Force two-norm initial, final = 4316.1878 78.854913
  Force max component initial, final = 92.173676 6.1341309
  Final line search alpha, max atom move = 0.0053049776 0.032541427
  Iterations, force evaluations = 100 199

velocity        all create 120.0 242321

dump            1 all custom 10000 ar.120.lammpstrj id type xu yu zu
thermo_style    custom step vol temp press ke pe ebond eangle edihed eimp emol evdwl etail ecoul elong enthalpy density lx ly lz
thermo          200

fix             1 all npt temp 120.0 120.0 100 iso 1.0 1.0 $(1000.0*dt)
fix             1 all npt temp 120.0 120.0 100 iso 1.0 1.0 1000

run             2000000
PPPM initialization ...
  G vector (1/distance) = 0.26105858
  grid = 32 32 32
  stencil order = 5
  estimated absolute RMS force accuracy = 0.00040651563
  estimated relative force accuracy = 1.2242097e-06
  3d grid and FFT values/proc = 6210 2048
Step Volume Temp Press KinEng PotEng E_bond E_angle E_dihed E_impro E_mol E_vdwl E_tail E_coul E_long Enthalpy Density Lx Ly Lz
100        50160          120     853.2012    1464.7701    4003.2941     23.80214    136.98855    38.631836    6.9435628    206.36609    -2728.797   -77.446868    25796.028   -19270.303    6092.2083   0.95023294           30           38           44
Averages over the last 5001 of 10002 rows, steps 1000200 to 2000100:
Volume Temp Press KinEng PotEng E_bond E_angle E_dihed E_impro E_mol E_vdwl E_tail E_coul E_long Enthalpy Density Lx Ly Lz
46269.2 119.977 -4.26286 1464.48 4269.06 457.657 474.64 277.369 44.2273 1253.89 -2982.71 -83.9602 25352.5 -19354.7 5730.41 1.03015 29.2033 36.9909 42.8315
Loop time of 8305.47 on 24 procs for 2000000 steps with 4096 atoms

write_data      data.ar.120
System init for write_data ...
PPPM initialization ...
  G vector (1/distance) = 0.2626136
  grid = 32 32 32
  stencil order = 5
  estimated absolute RMS force accuracy = 0.00037525755
  estimated relative force accuracy = 1.130077e-06
  3d grid and FFT values/proc = 6210 2048

write_restart   restart.ar.120
System init for write_restart ...
PPPM initialization ...
  G vector (1/distance) = 0.2626136
  grid = 32 32 32
  stencil order = 5
  estimated absolute RMS force accuracy = 0.00037525755
  estimated relative force accuracy = 1.130077e-06
  3d grid and FFT values/proc = 6210 2048
