variable        infile index box.lmp
variable        mytemp index 120.0
variable        pressure index 1.0
variable        seed index 242321
variable	 dt index 1.0

units           real
special_bonds   lj 0.0 0.0 0.5 coul 0.0 0.0 0.8333
#neighbor        2.0 bin
#neigh_modify    delay 0 every 1 check yes page 1000000 one 20000
atom_style      full
pair_style	 lj/cut/coul/long 12.0

bond_style	 harmonic
dihedral_style	 charmm
angle_style	 harmonic
improper_style	 cvff

read_data       box.lmp
Reading data file ...
  triclinic box = (-3.4849999 -4.7570000 -4.8759999) to (3.4849999 4.7570000 4.8759999) with tilt (0.0000000 0.0000000 0.0000000)
  reading atoms ...
  64 atoms
  scanning bonds ...
  scanning angles ...
  scanning dihedrals ...
  scanning impropers ...
  reading bonds ...
  56 bonds
  reading angles ...
  72 angles
  reading dihedrals ...
  64 dihedrals
  reading impropers ...
  24 impropers
Finding 1-2 1-3 1-4 neighbors ...
     3 = max # of 1-2 neighbors
     4 = max # of 1-3 neighbors
     6 = max # of 1-4 neighbors
     7 = max # of special neighbors

kspace_style    pppm 1E-4
kspace_modify   mesh 32 32 32
pair_modify     mix arithmetic tail yes

timestep        1.0

minimize       1.0e-4 1.0e-6 100 1000
PPPM initialization ...
  G vector (1/distance) = 0.30503442
  grid = 32 32 32
  stencil order = 5
  estimated absolute RMS force accuracy = 1.0237895e-05
  estimated relative force accuracy = 3.0831117e-08
  3d grid and FFT values/proc = 13547 2048
  update every 1 steps, delay 0 steps, check yes
Step Temp E_pair E_mol TotEng Press
0            0    47.397747    203.81872    251.21646    146429.32
Loop time of 0.159712 on 24 procs for 53 steps with 64 atoms

Minimization stats:
  Stopping criterion = energy tolerance
  Energy initial, next-to-last, final =
  Force two-norm initial, final = 538.06155 2.4179016
  Force max component initial, final = 75.321287 0.44822852
  Final line search alpha, max atom move = 0.36828227 0.16507462
  Iterations, force evaluations = 53 106

velocity        all create 120.0 242321

replicate       4 4 4
Replicating atoms ...
  triclinic box = (-3.4849999 -4.7570000 -4.8759999) to (24.394999 33.299000 34.132000) with tilt (0.0000000 0.0000000 0.0000000)
  4096 atoms
  3584 bonds
  4608 angles
  4096 dihedrals
  1536 impropers
Finding 1-2 1-3 1-4 neighbors ...
     3 = max # of 1-2 neighbors
     4 = max # of 1-3 neighbors
     6 = max # of 1-4 neighbors
     7 = max # of special neighbors
  replicate CPU = 0.020 seconds

dump            1 all custom 10000 ar.120.lammpstrj id type xu yu zu
thermo_style    custom step vol temp press ke pe ebond eangle edihed eimp emol evdwl etail ecoul elong enthalpy density cella cellb cellc cellalpha cellbeta cellgamma
thermo          200

fix             1 all recenter INIT INIT INIT units box

fix             2 all npt temp 120.0 120.0 100 tri 1.0 1.0 $(1000.0*dt)
fix             2 all npt temp 120.0 120.0 100 tri 1.0 1.0 1000

run             2000000
PPPM initialization ...
  G vector (1/distance) = 0.26541774
  grid = 32 32 32
  stencil order = 5
  estimated absolute RMS force accuracy = 0.00031767631
  estimated relative force accuracy = 9.5667276e-07
  3d grid and FFT values/proc = 6210 2048
Step Volume Temp Press KinEng PotEng E_bond E_angle E_dihed E_impro E_mol E_vdwl E_tail E_coul E_long Enthalpy Density Cella Cellb Cellc CellAlpha CellBeta CellGamma
53    41387.536    118.15385    989.79074    1442.2351    2161.3386    13.253362    152.29217     5.358682   0.63657094    171.54079   -3680.7323   -93.862435    25372.538   -19702.008    4201.0063    1.1516434    27.879999       38.056    39.007999           90           90           90
Averages over the last 5001 of 10002 rows, steps 1000200 to 2000053:
Volume Temp Press KinEng PotEng E_bond E_angle E_dihed E_impro E_mol E_vdwl E_tail E_coul E_long Enthalpy Density Cella Cellb Cellc CellAlpha CellBeta CellGamma
43165.6 120.016 3.71834 1464.97 3676.19 453.929 474.196 265.136 42.7586 1236.02 -3350.02 -89.9967 25484.1 -19693.9 5143.27 1.10421 27.839 39.1025 39.6549 90.0014 89.9995 90.0068
Loop time of 9246.45 on 24 procs for 2000000 steps with 4096 atoms

write_data      data.ar.120
System init for write_data ...
PPPM initialization ...
  G vector (1/distance) = 0.26483721
  grid = 32 32 32
  stencil order = 5
  estimated absolute RMS force accuracy = 0.00032621007
  estimated relative force accuracy = 9.8237194e-07
  3d grid and FFT values/proc = 5865 2048

write_restart   restart.ar.120
System init for write_restart ...
PPPM initialization ...
  G vector (1/distance) = 0.26483721
  grid = 32 32 32
  stencil order = 5
  estimated absolute RMS force accuracy = 0.00032621007
  estimated relative force accuracy = 9.8237194e-07
  3d grid and FFT values/proc = 5865 2048
