variable        mytemp index 200.0
variable	dt index 1.0
variable        eta equal 0.1
variable 	lbda equal 0.5

variable scale_lj equal 0.1+v_lbda*(1.0-0.1)
variable scale_coul equal (0.1+v_lbda*(1.0-0.1))^2

units           real
special_bonds   lj 0.0 0.0 0.5 coul 0.0 0.0 0.8333
#neighbor        2.0 bin
#neigh_modify    delay 0 every 1 check yes page 1000000 one 20000
atom_style      full
pair_style	 hybrid/overlay lj/cut 12.0 coul/long 12.0

bond_style	 harmonic
dihedral_style	 charmm
angle_style	 harmonic
improper_style	 cvff

read_restart    restart.ar.500000
Reading restart file ...
  restart file = 29 Sep 2021, LAMMPS = 29 Sep 2021
  restoring atom style full from restart
  triclinic box = (0.0000000 0.0000000 0.0000000) to (30.167756 38.212491 44.246042) with tilt (0.0000000 0.0000000 0.0000000)
  restoring pair style hybrid/overlay from restart
  restoring bond style harmonic from restart
  restoring angle style harmonic from restart
  restoring dihedral style charmm from restart
  restoring improper style cvff from restart
  4096 atoms
  3584 bonds
  4608 angles
  4096 dihedrals
  1536 impropers
Finding 1-2 1-3 1-4 neighbors ...
     3 = max # of 1-2 neighbors
     4 = max # of 1-3 neighbors
     6 = max # of 1-4 neighbors
     7 = max # of special neighbors
  read_restart CPU = 0.720 seconds

kspace_style    pppm 1E-4
kspace_modify   mesh 32 32 32
pair_modify     mix arithmetic tail yes

timestep        1.0

# para obter essas coeficientes usar o comando "write_coeff file.coeff" em simulação nvt ou npt sem hybrid style
pair_coeff      * * coul/long

pair_coeff 	1 1 lj/cut 0.086 3.39967 12
pair_coeff 	1 2 lj/cut 0.086 3.39967 12
pair_coeff 	1 3 lj/cut 0.086 3.39967 12
pair_coeff 	1 4 lj/cut 0.134387 3.17979 12
pair_coeff 	1 5 lj/cut 0.0359166 2.95511 12
pair_coeff 	1 6 lj/cut 0.0359166 2.99965 12
pair_coeff 	2 2 lj/cut 0.086 3.39967 12
pair_coeff 	2 3 lj/cut 0.086 3.39967 12
pair_coeff 	2 4 lj/cut 0.134387 3.17979 12
pair_coeff 	2 5 lj/cut 0.0359166 2.95511 12
pair_coeff 	2 6 lj/cut 0.0359166 2.99965 12
pair_coeff 	3 3 lj/cut 0.086 3.39967 12
pair_coeff 	3 4 lj/cut 0.134387 3.17979 12
pair_coeff 	3 5 lj/cut 0.0359166 2.95511 12
pair_coeff 	3 6 lj/cut 0.0359166 2.99965 12
pair_coeff 	4 4 lj/cut 0.21 2.95992 12
pair_coeff 	4 5 lj/cut 0.0561249 2.73523 12
pair_coeff 	4 6 lj/cut 0.0561249 2.77978 12
pair_coeff 	5 5 lj/cut 0.015 2.51055 12
pair_coeff 	5 6 lj/cut 0.015 2.55509 12
pair_coeff 	6 6 lj/cut 0.015 2.59964 12

velocity        all zero linear units box

group   	mobile type <> 1 6
4096 atoms in group mobile

fix            1a all recenter INIT INIT INIT units box

fix            1 mobile nvt temp 200.0 200.0 $(100.0*dt)
fix            1 mobile nvt temp 200.0 200.0 100
  fix style: nvt, fix ID: 1
dump           1 all custom 10000 ar.lammpstrj id type x y z

fix            2 mobile adapt 1 pair lj/cut epsilon 1*6 1*6 v_scale_lj scale yes
compute        lj all pair lj/cut

fix            3 mobile adapt 1 pair coul/long scale 1*6 1*6 v_scale_coul kspace v_scale_coul scale yes
compute        coul all pair coul/long

thermo_style    custom step vol temp press ke pe etotal enthalpy evdwl etail ecoul elong v_lbda v_scale_lj v_scale_coul c_lj c_coul
thermo          200

run             2000000
PPPM initialization ...
  G vector (1/distance) = 0.2607326
  grid = 32 32 32
  stencil order = 5
  estimated absolute RMS force accuracy = 0.00041335133
  estimated relative force accuracy = 1.2447952e-06
  3d grid and FFT values/proc = 6210 2048
All restart file global fix info was re-assigned
  update every 1 steps, delay 10 steps, check yes
Step Volume Temp Press KinEng PotEng TotEng Enthalpy E_vdwl E_tail E_coul E_long v_lbda v_scale_lj v_scale_coul c_lj c_coul
500000    51006.178    200.75293    1976.6982     2450.474    2726.2764    5176.7503    6647.1623   -1265.1422   -41.888909    7906.0135   -5819.2257          0.5         0.55       0.3025   -1223.2533    7906.0135
Averages over the last 5001 of 10001 rows, steps 1500000 to 2500000:
Volume Temp Press KinEng PotEng TotEng Enthalpy E_vdwl E_tail E_coul E_long v_lbda v_scale_lj v_scale_coul c_lj c_coul
51006.2 199.997 2269.16 2441.25 2725.3 5166.55 6854.52 -1271.8 -41.8889 7906.63 -5823.56 0.5 0.55 0.3025 -1229.91 7906.63
Loop time of 10946.7 on 24 procs for 2000000 steps with 4096 atoms

write_data      data.ar
System init for write_data ...
PPPM initialization ...
  G vector (1/distance) = 0.2607326
  grid = 32 32 32
  stencil order = 5
  estimated absolute RMS force accuracy = 0.00041335133
  estimated relative force accuracy = 1.2447952e-06
  3d grid and FFT values/proc = 6210 2048

write_restart   restart.ar
System init for write_restart ...
PPPM initialization ...
  G vector (1/distance) = 0.2607326
  grid = 32 32 32
  stencil order = 5
  estimated absolute RMS force accuracy = 0.00041335133
  estimated relative force accuracy = 1.2447952e-06
  3d grid and FFT values/proc = 6210 2048
